<?xml version='1.0' encoding='utf-8'?>
<routes><route id="1773" town="Town12">
         <waypoints>
            <position x="-818.5" y="5288.0" z="376.3" />
            <position x="-818.5" y="5286.0" z="376.3" />
            <position x="-818.5" y="5284.0" z="376.3" />
            <position x="-818.5" y="5282.0" z="376.3" />
            <position x="-818.5" y="5280.0" z="376.3" />
            <position x="-818.5" y="5278.0" z="376.3" />
            <position x="-818.5" y="5276.0" z="376.3" />
            <position x="-818.5" y="5274.0" z="376.3" />
            <position x="-818.5" y="5272.0" z="376.3" />
            <position x="-818.5" y="5270.0" z="376.3" />
            <position x="-818.5" y="5268.0" z="376.3" />
            <position x="-818.5" y="5266.0" z="376.3" />
            <position x="-818.5" y="5264.0" z="376.3" />
            <position x="-818.5" y="5262.0" z="376.3" />
            <position x="-818.5" y="5260.0" z="376.3" />
            <position x="-818.5" y="5258.0" z="376.4" />
            <position x="-818.5" y="5256.0" z="376.4" />
            <position x="-818.6" y="5254.0" z="376.4" />
            <position x="-818.6" y="5252.0" z="376.4" />
            <position x="-818.6" y="5250.0" z="376.4" />
            <position x="-818.6" y="5248.0" z="376.4" />
            <position x="-818.6" y="5246.0" z="376.4" />
            <position x="-818.6" y="5244.0" z="376.4" />
            <position x="-818.6" y="5242.0" z="376.4" />
            <position x="-818.6" y="5240.0" z="376.4" />
            <position x="-818.6" y="5238.0" z="376.4" />
            <position x="-818.6" y="5236.0" z="376.4" />
            <position x="-818.6" y="5234.0" z="376.4" />
            <position x="-818.6" y="5232.0" z="376.4" />
            <position x="-818.6" y="5230.0" z="376.3" />
            <position x="-818.6" y="5228.0" z="376.3" />
            <position x="-818.6" y="5226.0" z="376.3" />
            <position x="-818.6" y="5224.0" z="376.3" />
            <position x="-818.6" y="5222.0" z="376.3" />
            <position x="-818.6" y="5220.0" z="376.3" />
            <position x="-818.6" y="5218.0" z="376.3" />
            <position x="-818.6" y="5216.0" z="376.3" />
            <position x="-818.6" y="5214.0" z="376.3" />
            <position x="-818.6" y="5212.0" z="376.3" />
            <position x="-818.6" y="5210.0" z="376.3" />
            <position x="-818.6" y="5208.0" z="376.3" />
            <position x="-818.6" y="5206.0" z="376.3" />
            <position x="-818.6" y="5204.0" z="376.3" />
            <position x="-818.6" y="5202.0" z="376.3" />
            <position x="-818.6" y="5200.0" z="376.3" />
            <position x="-818.7" y="5198.0" z="376.3" />
            <position x="-818.7" y="5196.0" z="376.3" />
            <position x="-818.7" y="5194.0" z="376.3" />
            <position x="-818.7" y="5192.0" z="376.3" />
            <position x="-818.7" y="5190.0" z="376.3" />
            <position x="-818.7" y="5188.0" z="376.3" />
            <position x="-818.7" y="5186.0" z="376.3" />
            <position x="-818.7" y="5184.0" z="376.3" />
            <position x="-818.7" y="5182.0" z="376.3" />
            <position x="-818.7" y="5180.0" z="376.3" />
            <position x="-818.7" y="5178.0" z="376.3" />
            <position x="-818.7" y="5176.0" z="376.3" />
            <position x="-818.7" y="5174.0" z="376.3" />
            <position x="-818.7" y="5172.0" z="376.3" />
            <position x="-818.7" y="5170.0" z="376.3" />
            <position x="-818.7" y="5168.0" z="376.3" />
            <position x="-818.7" y="5166.0" z="376.3" />
            <position x="-818.7" y="5164.0" z="376.3" />
            <position x="-818.7" y="5162.0" z="376.3" />
            <position x="-818.7" y="5160.0" z="376.3" />
            <position x="-818.7" y="5158.0" z="376.3" />
            <position x="-818.7" y="5156.0" z="376.3" />
            <position x="-818.7" y="5154.0" z="376.3" />
         </waypoints>
         <scenarios>
            <scenario name="ParkedObstacle_1" type="ParkedObstacle">
               <distance value="40" />
               <direction value="right" />
               <speed value="43" />
               <trigger_point x="-818.5" y="5278.0" yaw="269.9" z="376.3" />
            </scenario>
         </scenarios>
         <weathers>
            <weather cloudiness="100.0" fog_density="100.0" precipitation="100.0" precipitation_deposits="90.0" route_percentage="0" sun_altitude_angle="-90.0" sun_azimuth_angle="-1.0" wetness="100.0" wind_intensity="100.0" />
            <weather cloudiness="100.0" fog_density="100.0" precipitation="100.0" precipitation_deposits="90.0" route_percentage="100" sun_altitude_angle="-90.0" sun_azimuth_angle="-1.0" wetness="100.0" wind_intensity="100.0" />
         </weathers>
      </route>
      <route id="1792" town="Town12">
         <waypoints>
            <position x="3127.8" y="6268.0" z="372.0" />
            <position x="3125.9" y="6267.6" z="371.9" />
            <position x="3123.9" y="6267.3" z="371.9" />
            <position x="3121.9" y="6267.0" z="371.8" />
            <position x="3119.9" y="6266.7" z="371.7" />
            <position x="3118.0" y="6266.3" z="371.6" />
            <position x="3116.0" y="6266.0" z="371.6" />
            <position x="3114.0" y="6265.7" z="371.5" />
            <position x="3112.1" y="6265.4" z="371.4" />
            <position x="3110.1" y="6265.0" z="371.4" />
            <position x="3108.1" y="6264.7" z="371.3" />
            <position x="3106.1" y="6264.4" z="371.3" />
            <position x="3104.2" y="6264.1" z="371.2" />
            <position x="3102.2" y="6263.7" z="371.2" />
            <position x="3100.2" y="6263.4" z="371.1" />
            <position x="3098.2" y="6263.1" z="371.1" />
            <position x="3096.3" y="6262.8" z="371.0" />
            <position x="3094.3" y="6262.4" z="371.0" />
            <position x="3092.3" y="6262.1" z="370.9" />
            <position x="3090.3" y="6261.8" z="370.9" />
            <position x="3088.4" y="6261.5" z="370.8" />
            <position x="3086.4" y="6261.1" z="370.8" />
            <position x="3084.4" y="6260.8" z="370.8" />
            <position x="3082.5" y="6260.5" z="370.7" />
            <position x="3080.5" y="6260.2" z="370.7" />
            <position x="3078.5" y="6259.8" z="370.7" />
            <position x="3076.5" y="6259.5" z="370.6" />
            <position x="3074.6" y="6259.2" z="370.6" />
            <position x="3072.6" y="6258.9" z="370.5" />
            <position x="3070.6" y="6258.5" z="370.5" />
            <position x="3068.6" y="6258.2" z="370.5" />
            <position x="3066.7" y="6257.9" z="370.5" />
            <position x="3064.7" y="6257.6" z="370.4" />
            <position x="3062.7" y="6257.2" z="370.4" />
            <position x="3060.7" y="6256.9" z="370.4" />
            <position x="3058.8" y="6256.6" z="370.4" />
            <position x="3056.8" y="6256.3" z="370.3" />
            <position x="3054.8" y="6255.9" z="370.3" />
            <position x="3052.9" y="6255.6" z="370.3" />
            <position x="3050.9" y="6255.3" z="370.3" />
            <position x="3048.9" y="6255.0" z="370.3" />
            <position x="3046.9" y="6254.6" z="370.3" />
            <position x="3045.0" y="6254.3" z="370.3" />
            <position x="3043.0" y="6254.0" z="370.3" />
            <position x="3041.0" y="6253.7" z="370.3" />
            <position x="3039.0" y="6253.3" z="370.3" />
            <position x="3037.1" y="6253.0" z="370.3" />
            <position x="3035.1" y="6252.7" z="370.3" />
            <position x="3033.1" y="6252.4" z="370.3" />
            <position x="3031.1" y="6252.1" z="370.3" />
            <position x="3029.2" y="6251.7" z="370.3" />
            <position x="3027.2" y="6251.4" z="370.3" />
            <position x="3025.2" y="6251.1" z="370.3" />
            <position x="3023.2" y="6250.8" z="370.3" />
            <position x="3021.3" y="6250.4" z="370.3" />
            <position x="3019.3" y="6250.1" z="370.3" />
            <position x="3017.3" y="6249.8" z="370.3" />
            <position x="3015.4" y="6249.5" z="370.3" />
            <position x="3013.4" y="6249.1" z="370.3" />
            <position x="3011.4" y="6248.8" z="370.3" />
            <position x="3009.4" y="6248.5" z="370.4" />
            <position x="3007.5" y="6248.2" z="370.4" />
            <position x="3005.5" y="6247.8" z="370.4" />
            <position x="3003.5" y="6247.5" z="370.4" />
            <position x="3001.5" y="6247.2" z="370.4" />
            <position x="2999.6" y="6246.9" z="370.5" />
            <position x="2997.6" y="6246.5" z="370.5" />
            <position x="2995.6" y="6246.2" z="370.5" />
         </waypoints>
         <scenarios>
            <scenario name="HazardAtSideLane_1" type="HazardAtSideLane">
               <distance value="45" />
               <speed value="44" />
               <bicycle_drive_distance value="101" />
               <bicycle_speed value="6" />
               <trigger_point x="3118.0" y="6266.3" yaw="-170.7" z="371.6" />
            </scenario>
         </scenarios>
         <weathers>
            <weather cloudiness="40.0" fog_density="2.0" precipitation="0.0" precipitation_deposits="50.0" route_percentage="0" sun_altitude_angle="15.0" sun_azimuth_angle="-1.0" wetness="0.0" wind_intensity="10.0" />
            <weather cloudiness="40.0" fog_density="2.0" precipitation="0.0" precipitation_deposits="50.0" route_percentage="100" sun_altitude_angle="15.0" sun_azimuth_angle="-1.0" wetness="0.0" wind_intensity="10.0" />
         </weathers>
      </route>
      <route id="1956" town="Town12">
         <waypoints>
            <position x="-393.5" y="3522.9" z="365.8" />
            <position x="-393.5" y="3524.9" z="365.8" />
            <position x="-393.5" y="3526.9" z="365.8" />
            <position x="-393.5" y="3528.9" z="365.8" />
            <position x="-393.4" y="3530.9" z="365.8" />
            <position x="-393.4" y="3532.9" z="365.8" />
            <position x="-393.4" y="3534.9" z="365.9" />
            <position x="-393.4" y="3536.9" z="365.9" />
            <position x="-393.4" y="3538.9" z="365.9" />
            <position x="-393.4" y="3540.9" z="365.9" />
            <position x="-393.4" y="3542.9" z="365.9" />
            <position x="-393.3" y="3544.9" z="365.9" />
            <position x="-393.3" y="3546.9" z="366.0" />
            <position x="-393.3" y="3548.9" z="366.0" />
            <position x="-393.3" y="3550.9" z="366.0" />
            <position x="-393.3" y="3552.9" z="366.0" />
            <position x="-393.3" y="3554.9" z="366.0" />
            <position x="-393.3" y="3556.9" z="366.1" />
            <position x="-393.2" y="3558.9" z="366.1" />
            <position x="-393.2" y="3560.9" z="366.1" />
            <position x="-393.2" y="3562.9" z="366.1" />
            <position x="-393.2" y="3564.9" z="366.2" />
            <position x="-393.2" y="3566.9" z="366.2" />
            <position x="-393.2" y="3568.9" z="366.2" />
            <position x="-393.2" y="3570.9" z="366.2" />
            <position x="-393.2" y="3572.9" z="366.2" />
            <position x="-393.1" y="3574.9" z="366.3" />
            <position x="-393.1" y="3576.9" z="366.3" />
            <position x="-393.1" y="3578.9" z="366.3" />
            <position x="-393.1" y="3580.9" z="366.3" />
            <position x="-393.1" y="3582.9" z="366.4" />
            <position x="-393.1" y="3584.9" z="366.4" />
            <position x="-393.1" y="3586.9" z="366.4" />
            <position x="-393.0" y="3588.9" z="366.4" />
            <position x="-393.0" y="3590.9" z="366.5" />
            <position x="-393.0" y="3592.9" z="366.5" />
            <position x="-393.0" y="3594.9" z="366.5" />
            <position x="-393.0" y="3596.9" z="366.5" />
            <position x="-393.0" y="3598.9" z="366.6" />
            <position x="-393.0" y="3600.9" z="366.6" />
            <position x="-393.0" y="3602.9" z="366.6" />
            <position x="-392.9" y="3604.9" z="366.6" />
            <position x="-392.9" y="3606.9" z="366.7" />
            <position x="-392.9" y="3608.9" z="366.7" />
            <position x="-392.9" y="3610.9" z="366.7" />
            <position x="-392.9" y="3612.9" z="366.7" />
            <position x="-392.9" y="3614.9" z="366.8" />
            <position x="-392.9" y="3616.9" z="366.8" />
            <position x="-392.8" y="3618.9" z="366.8" />
            <position x="-392.8" y="3620.9" z="366.9" />
            <position x="-392.8" y="3622.9" z="366.9" />
            <position x="-392.8" y="3624.9" z="366.9" />
            <position x="-392.8" y="3626.9" z="366.9" />
            <position x="-392.8" y="3628.9" z="367.0" />
            <position x="-392.8" y="3630.9" z="367.0" />
            <position x="-392.8" y="3632.9" z="367.0" />
            <position x="-392.7" y="3634.9" z="367.0" />
            <position x="-392.7" y="3636.9" z="367.1" />
            <position x="-392.7" y="3638.9" z="367.1" />
            <position x="-392.7" y="3640.9" z="367.1" />
            <position x="-392.7" y="3642.9" z="367.1" />
            <position x="-392.7" y="3644.9" z="367.2" />
            <position x="-392.7" y="3646.9" z="367.2" />
            <position x="-392.6" y="3648.9" z="367.2" />
            <position x="-392.6" y="3650.9" z="367.3" />
            <position x="-392.6" y="3652.9" z="367.3" />
            <position x="-392.6" y="3654.9" z="367.3" />
            <position x="-392.6" y="3656.9" z="367.3" />
         </waypoints>
         <scenarios>
            <scenario name="ParkingExit_1" type="ParkingExit">
               <trigger_point x="-393.5" y="3522.9" yaw="89.6" z="365.8" />
               <direction value="right" />
               <front_vehicle_distance value="9" />
               <behind_vehicle_distance value="9" />
            </scenario>
         </scenarios>
         <weathers>
            <weather cloudiness="5.0" fog_density="2.0" precipitation="0.0" precipitation_deposits="0.0" route_percentage="0" sun_altitude_angle="90.0" sun_azimuth_angle="-1.0" wetness="0.0" wind_intensity="10.0" />
            <weather cloudiness="5.0" fog_density="2.0" precipitation="0.0" precipitation_deposits="0.0" route_percentage="100" sun_altitude_angle="90.0" sun_azimuth_angle="-1.0" wetness="0.0" wind_intensity="10.0" />
         </weathers>
      </route>
      <route id="2164" town="Town12">
         <waypoints>
            <position x="-1466.9" y="3952.5" z="364.2" />
            <position x="-1466.9" y="3950.5" z="364.2" />
            <position x="-1466.9" y="3948.5" z="364.1" />
            <position x="-1466.9" y="3946.5" z="364.1" />
            <position x="-1467.0" y="3944.5" z="364.1" />
            <position x="-1467.0" y="3942.5" z="364.1" />
            <position x="-1467.0" y="3940.5" z="364.0" />
            <position x="-1467.0" y="3938.5" z="364.0" />
            <position x="-1467.0" y="3936.5" z="364.0" />
            <position x="-1467.0" y="3934.5" z="364.0" />
            <position x="-1467.0" y="3932.5" z="363.9" />
            <position x="-1481.7" y="3916.3" z="363.9" />
            <position x="-1483.7" y="3916.3" z="364.0" />
            <position x="-1485.7" y="3916.3" z="364.0" />
            <position x="-1487.7" y="3916.2" z="364.0" />
            <position x="-1489.7" y="3916.2" z="364.0" />
            <position x="-1491.7" y="3916.2" z="364.1" />
            <position x="-1493.7" y="3916.2" z="364.1" />
            <position x="-1495.7" y="3916.2" z="364.1" />
            <position x="-1497.7" y="3916.2" z="364.1" />
            <position x="-1499.7" y="3916.2" z="364.2" />
            <position x="-1501.7" y="3916.1" z="364.2" />
            <position x="-1503.7" y="3916.1" z="364.2" />
            <position x="-1505.7" y="3916.1" z="364.2" />
            <position x="-1507.7" y="3916.1" z="364.2" />
            <position x="-1509.7" y="3916.1" z="364.3" />
         </waypoints>
         <scenarios>
            <scenario name="VehicleTurningRoutePedestrian_1" type="VehicleTurningRoutePedestrian">
               <trigger_point x="-1466.9" y="3947.5" yaw="269.7" z="364.1" />
            </scenario>
         </scenarios>
         <weathers>
            <weather cloudiness="5.0" fog_density="2.0" precipitation="0.0" precipitation_deposits="0.0" route_percentage="0" sun_altitude_angle="90.0" sun_azimuth_angle="-1.0" wetness="0.0" wind_intensity="10.0" />
            <weather cloudiness="5.0" fog_density="2.0" precipitation="0.0" precipitation_deposits="0.0" route_percentage="100" sun_altitude_angle="90.0" sun_azimuth_angle="-1.0" wetness="0.0" wind_intensity="10.0" />
         </weathers>
      </route>
      <route id="2201" town="Town12">
         <waypoints>
            <position x="871.5" y="3688.8" z="371.1" />
            <position x="873.4" y="3689.2" z="371.0" />
            <position x="875.4" y="3689.5" z="371.0" />
            <position x="877.4" y="3689.8" z="371.0" />
            <position x="879.3" y="3690.2" z="371.0" />
            <position x="881.3" y="3690.5" z="371.0" />
            <position x="883.3" y="3690.8" z="371.0" />
            <position x="885.3" y="3691.2" z="371.0" />
            <position x="887.2" y="3691.5" z="371.0" />
            <position x="889.2" y="3691.8" z="370.9" />
            <position x="891.2" y="3692.2" z="370.9" />
            <position x="893.1" y="3692.5" z="370.9" />
            <position x="895.1" y="3692.9" z="370.9" />
            <position x="918.8" y="3680.8" z="370.8" />
            <position x="919.1" y="3678.8" z="370.8" />
            <position x="919.4" y="3676.8" z="370.8" />
            <position x="919.7" y="3674.9" z="370.8" />
            <position x="920.0" y="3672.9" z="370.8" />
            <position x="920.3" y="3670.9" z="370.8" />
            <position x="920.7" y="3668.9" z="370.8" />
            <position x="921.0" y="3667.0" z="370.8" />
            <position x="921.3" y="3665.0" z="370.8" />
            <position x="921.6" y="3663.0" z="370.8" />
            <position x="921.9" y="3661.1" z="370.8" />
            <position x="922.3" y="3659.1" z="370.8" />
            <position x="922.6" y="3657.1" z="370.8" />
            <position x="922.9" y="3655.1" z="370.9" />
            <position x="923.2" y="3653.2" z="370.9" />
         </waypoints>
         <scenarios>
            <scenario name="EnterActorFlow_1" type="EnterActorFlow">
               <trigger_point x="877.4" y="3689.8" yaw="9.6" z="371.0" />
               <start_actor_flow x="913.1" y="3715.6" z="370.7" />
               <end_actor_flow x="920.4" y="3670.7" z="370.8" />
               <flow_speed value="17" />
               <source_dist_interval from="30" to="38" />
            </scenario>
         </scenarios>
         <weathers>
            <weather cloudiness="100.0" fog_density="50.0" precipitation="60.0" precipitation_deposits="60.0" route_percentage="0" sun_altitude_angle="45.0" sun_azimuth_angle="-1.0" wetness="0.0" wind_intensity="60.0" />
            <weather cloudiness="100.0" fog_density="50.0" precipitation="60.0" precipitation_deposits="60.0" route_percentage="100" sun_altitude_angle="45.0" sun_azimuth_angle="-1.0" wetness="0.0" wind_intensity="60.0" />
         </weathers>
      </route>
      <route id="2373" town="Town12">
         <waypoints>
            <position x="-183.1" y="5344.9" z="372.1" />
            <position x="-183.9" y="5343.1" z="372.1" />
            <position x="-184.7" y="5341.2" z="372.1" />
            <position x="-210.6" y="5328.8" z="372.4" />
            <position x="-212.5" y="5329.6" z="372.4" />
            <position x="-214.3" y="5330.4" z="372.4" />
            <position x="-216.1" y="5331.2" z="372.4" />
            <position x="-218.0" y="5332.0" z="372.4" />
            <position x="-219.8" y="5332.8" z="372.4" />
            <position x="-221.7" y="5333.6" z="372.4" />
            <position x="-223.5" y="5334.4" z="372.4" />
            <position x="-225.3" y="5335.2" z="372.4" />
            <position x="-227.2" y="5335.9" z="372.5" />
            <position x="-229.0" y="5336.7" z="372.5" />
            <position x="-230.8" y="5337.5" z="372.5" />
            <position x="-232.7" y="5338.3" z="372.5" />
            <position x="-234.5" y="5339.1" z="372.5" />
            <position x="-236.4" y="5339.9" z="372.5" />
         </waypoints>
         <scenarios>
            <scenario name="VanillaSignalizedTurnEncounterRedLight_1" type="VanillaSignalizedTurnEncounterRedLight">
               <trigger_point x="-185.9" y="5338.5" yaw="246.3" z="372.1" />
            </scenario>
         </scenarios>
         <weathers>
            <weather cloudiness="5.0" fog_density="2.0" precipitation="0.0" precipitation_deposits="0.0" route_percentage="0" sun_altitude_angle="15.0" sun_azimuth_angle="-1.0" wetness="0.0" wind_intensity="10.0" />
            <weather cloudiness="5.0" fog_density="2.0" precipitation="0.0" precipitation_deposits="0.0" route_percentage="100" sun_altitude_angle="15.0" sun_azimuth_angle="-1.0" wetness="0.0" wind_intensity="10.0" />
         </weathers>
      </route>
      <route id="2397" town="Town12">
         <waypoints>
            <position x="2540.0" y="1625.3" z="351.2" />
            <position x="2540.0" y="1623.3" z="351.2" />
            <position x="2540.0" y="1621.3" z="351.3" />
            <position x="2558.3" y="1599.5" z="351.2" />
            <position x="2560.3" y="1599.5" z="351.2" />
            <position x="2562.3" y="1599.5" z="351.1" />
            <position x="2564.3" y="1599.5" z="351.0" />
            <position x="2566.3" y="1599.5" z="350.9" />
            <position x="2568.3" y="1599.5" z="350.9" />
            <position x="2570.3" y="1599.5" z="350.8" />
            <position x="2572.3" y="1599.5" z="350.7" />
            <position x="2574.3" y="1599.5" z="350.6" />
            <position x="2576.3" y="1599.5" z="350.6" />
            <position x="2578.3" y="1599.5" z="350.5" />
            <position x="2580.3" y="1599.5" z="350.4" />
            <position x="2582.3" y="1599.4" z="350.3" />
            <position x="2584.3" y="1599.4" z="350.3" />
            <position x="2586.3" y="1599.4" z="350.2" />
         </waypoints>
         <scenarios>
            <scenario name="VanillaNonSignalizedTurn_1" type="VanillaNonSignalizedTurn">
               <trigger_point x="2540.0" y="1618.3" yaw="269.9" z="351.4" />
            </scenario>
         </scenarios>
         <weathers>
            <weather cloudiness="100.0" fog_density="100.0" precipitation="100.0" precipitation_deposits="90.0" route_percentage="0" sun_altitude_angle="-90.0" sun_azimuth_angle="-1.0" wetness="100.0" wind_intensity="100.0" />
            <weather cloudiness="100.0" fog_density="100.0" precipitation="100.0" precipitation_deposits="90.0" route_percentage="100" sun_altitude_angle="-90.0" sun_azimuth_angle="-1.0" wetness="100.0" wind_intensity="100.0" />
         </weathers>
      </route>
      <route id="2534" road_id="392" town="Town12">
         <waypoints>
            <position x="2034.9" y="3077.8" z="356.9" />
            <position x="2032.9" y="3077.7" z="356.9" />
            <position x="2030.9" y="3077.7" z="356.9" />
            <position x="2028.9" y="3077.7" z="356.9" />
            <position x="2026.9" y="3077.7" z="356.9" />
            <position x="2024.9" y="3077.6" z="357.0" />
            <position x="2022.9" y="3077.6" z="357.0" />
            <position x="2020.9" y="3077.6" z="357.0" />
            <position x="2018.9" y="3077.6" z="357.0" />
            <position x="2016.9" y="3077.5" z="357.0" />
            <position x="2014.9" y="3077.5" z="357.0" />
            <position x="2012.9" y="3077.5" z="357.0" />
            <position x="2010.9" y="3077.5" z="357.0" />
            <position x="2008.9" y="3077.5" z="357.0" />
            <position x="2006.9" y="3077.5" z="357.0" />
            <position x="2004.9" y="3077.4" z="357.0" />
            <position x="2002.9" y="3077.4" z="357.1" />
            <position x="2000.9" y="3077.4" z="357.1" />
            <position x="1998.9" y="3077.4" z="357.1" />
            <position x="1996.9" y="3077.4" z="357.1" />
            <position x="1994.9" y="3077.4" z="357.1" />
            <position x="1992.8" y="3077.4" z="357.1" />
            <position x="1990.8" y="3077.4" z="357.1" />
            <position x="1988.8" y="3077.4" z="357.1" />
            <position x="1986.8" y="3077.4" z="357.1" />
            <position x="1984.8" y="3077.3" z="357.2" />
            <position x="1982.8" y="3077.3" z="357.2" />
            <position x="1980.8" y="3077.3" z="357.2" />
            <position x="1978.8" y="3077.3" z="357.2" />
            <position x="1976.8" y="3077.3" z="357.2" />
            <position x="1974.8" y="3077.3" z="357.2" />
            <position x="1972.8" y="3077.3" z="357.2" />
            <position x="1970.8" y="3077.3" z="357.3" />
            <position x="1968.8" y="3077.3" z="357.3" />
            <position x="1966.8" y="3077.3" z="357.3" />
            <position x="1964.8" y="3077.3" z="357.3" />
            <position x="1962.8" y="3077.3" z="357.3" />
            <position x="1960.8" y="3077.3" z="357.3" />
            <position x="1958.8" y="3077.3" z="357.4" />
            <position x="1956.8" y="3077.3" z="357.4" />
            <position x="1954.8" y="3077.3" z="357.4" />
            <position x="1952.8" y="3077.3" z="357.4" />
            <position x="1950.8" y="3077.3" z="357.4" />
            <position x="1948.8" y="3077.3" z="357.4" />
            <position x="1946.8" y="3077.3" z="357.5" />
            <position x="1944.8" y="3077.3" z="357.5" />
            <position x="1942.8" y="3077.3" z="357.5" />
            <position x="1940.8" y="3077.3" z="357.5" />
            <position x="1938.8" y="3077.4" z="357.5" />
            <position x="1936.8" y="3077.4" z="357.6" />
            <position x="1934.8" y="3077.4" z="357.6" />
            <position x="1932.8" y="3077.4" z="357.6" />
            <position x="1930.8" y="3077.4" z="357.6" />
            <position x="1928.8" y="3077.4" z="357.7" />
            <position x="1926.8" y="3077.4" z="357.7" />
            <position x="1924.8" y="3077.4" z="357.7" />
            <position x="1922.8" y="3077.4" z="357.7" />
            <position x="1920.8" y="3077.4" z="357.8" />
            <position x="1918.8" y="3077.4" z="357.8" />
            <position x="1916.8" y="3077.4" z="357.8" />
            <position x="1914.8" y="3077.4" z="357.8" />
            <position x="1912.8" y="3077.4" z="357.9" />
            <position x="1910.8" y="3077.4" z="357.9" />
            <position x="1908.8" y="3077.4" z="357.9" />
            <position x="1906.8" y="3077.4" z="357.9" />
            <position x="1904.8" y="3077.4" z="358.0" />
            <position x="1902.8" y="3077.4" z="358.0" />
            <position x="1900.8" y="3077.4" z="358.0" />
         </waypoints>
         <scenarios>
            <scenario name="Accident_1" type="Accident">
               <distance value="40" />
               <direction value="right" />
               <speed value="57" />
               <trigger_point x="2024.9" y="3077.6" yaw="180.6" z="357.0" />
            </scenario>
         </scenarios>
         <weathers>
            <weather cloudiness="5.0" fog_density="10.0" precipitation="0.0" precipitation_deposits="50.0" route_percentage="0" sun_altitude_angle="15.0" sun_azimuth_angle="-1.0" wetness="0.0" wind_intensity="10.0" />
            <weather cloudiness="5.0" fog_density="10.0" precipitation="0.0" precipitation_deposits="50.0" route_percentage="100" sun_altitude_angle="15.0" sun_azimuth_angle="-1.0" wetness="0.0" wind_intensity="10.0" />
         </weathers>
      </route>
      <route id="2554" road_id="392" town="Town12">
         <waypoints>
            <position x="1714.8" y="3077.6" z="361.3" />
            <position x="1712.8" y="3077.6" z="361.4" />
            <position x="1710.8" y="3077.6" z="361.4" />
            <position x="1708.8" y="3077.6" z="361.4" />
            <position x="1706.8" y="3077.6" z="361.5" />
            <position x="1704.8" y="3077.6" z="361.5" />
            <position x="1702.8" y="3077.6" z="361.5" />
            <position x="1700.8" y="3077.6" z="361.6" />
            <position x="1698.8" y="3077.6" z="361.6" />
            <position x="1696.8" y="3077.6" z="361.6" />
            <position x="1694.8" y="3077.6" z="361.7" />
            <position x="1692.8" y="3077.6" z="361.7" />
            <position x="1690.8" y="3077.6" z="361.8" />
            <position x="1688.8" y="3077.6" z="361.8" />
            <position x="1686.8" y="3077.6" z="361.8" />
            <position x="1684.8" y="3077.6" z="361.9" />
            <position x="1682.8" y="3077.6" z="361.9" />
            <position x="1680.8" y="3077.6" z="361.9" />
            <position x="1678.8" y="3077.6" z="362.0" />
            <position x="1676.8" y="3077.6" z="362.0" />
            <position x="1674.8" y="3077.6" z="362.0" />
            <position x="1672.8" y="3077.6" z="362.1" />
            <position x="1670.8" y="3077.7" z="362.1" />
            <position x="1668.8" y="3077.7" z="362.1" />
            <position x="1666.8" y="3077.7" z="362.2" />
            <position x="1664.8" y="3077.7" z="362.2" />
            <position x="1662.8" y="3077.7" z="362.2" />
            <position x="1660.8" y="3077.7" z="362.3" />
            <position x="1658.8" y="3077.7" z="362.3" />
            <position x="1656.8" y="3077.7" z="362.3" />
            <position x="1654.8" y="3077.7" z="362.4" />
            <position x="1652.8" y="3077.7" z="362.4" />
            <position x="1650.8" y="3077.7" z="362.4" />
            <position x="1648.8" y="3077.7" z="362.5" />
            <position x="1646.8" y="3077.7" z="362.5" />